Indole (吲哚)
     RDKit          3D

 16 17  0  0  0  0  0  0  0  0999 V2000
   -2.0720    0.7689   -0.1332 C   0  0  0  0  0  0  0  0  0  0  0  0
   -2.1175   -0.6013    0.1163 C   0  0  0  0  0  0  0  0  0  0  0  0
   -0.9438   -1.3498    0.2487 C   0  0  0  0  0  0  0  0  0  0  0  0
    0.2742   -0.6715    0.1213 C   0  0  0  0  0  0  0  0  0  0  0  0
    1.5663   -1.1399    0.2024 N   0  0  0  0  0  0  0  0  0  0  0  0
    2.4549   -0.1147    0.0129 C   0  0  0  0  0  0  0  0  0  0  0  0
    1.7302    1.0369   -0.1943 C   0  0  0  0  0  0  0  0  0  0  0  0
    0.3502    0.6990   -0.1283 C   0  0  0  0  0  0  0  0  0  0  0  0
   -0.8453    1.4317   -0.2578 C   0  0  0  0  0  0  0  0  0  0  0  0
   -2.9972    1.3311   -0.2325 H   0  0  0  0  0  0  0  0  0  0  0  0
   -3.0809   -1.0975    0.2097 H   0  0  0  0  0  0  0  0  0  0  0  0
   -0.9832   -2.4164    0.4429 H   0  0  0  0  0  0  0  0  0  0  0  0
    1.8155   -2.1034    0.3769 H   0  0  0  0  0  0  0  0  0  0  0  0
    3.5214   -0.2923    0.0417 H   0  0  0  0  0  0  0  0  0  0  0  0
    2.1451    2.0197   -0.3745 H   0  0  0  0  0  0  0  0  0  0  0  0
   -0.8178    2.4995   -0.4522 H   0  0  0  0  0  0  0  0  0  0  0  0
  1  2  2  0
  2  3  1  0
  3  4  2  0
  4  5  1  0
  5  6  1  0
  6  7  2  0
  7  8  1  0
  8  9  2  0
  9  1  1  0
  8  4  1  0
  1 10  1  0
  2 11  1  0
  3 12  1  0
  5 13  1  0
  6 14  1  0
  7 15  1  0
  9 16  1  0
M  END
>  <SMILES>  (1) 
c1ccc2[nH]ccc2c1

>  <MMFF94_Energy_kcal>  (1) 
15.1119

$$$$
