Beam 3 / 反应物 1
     RDKit          3D

 19 20  0  0  0  0  0  0  0  0999 V2000
   -0.4412    0.6384    0.1661 C   0  0  0  0  0  0  0  0  0  0  0  0
   -1.8097    0.9372    0.2661 C   0  0  0  0  0  0  0  0  0  0  0  0
   -2.7733   -0.0475    0.0413 C   0  0  0  0  0  0  0  0  0  0  0  0
   -2.3821   -1.3425   -0.2861 C   0  0  0  0  0  0  0  0  0  0  0  0
   -1.0261   -1.6566   -0.3896 C   0  0  0  0  0  0  0  0  0  0  0  0
   -0.0439   -0.6782   -0.1667 C   0  0  0  0  0  0  0  0  0  0  0  0
    1.3235   -0.9779   -0.2669 C   0  0  0  0  0  0  0  0  0  0  0  0
    2.2769    0.0095   -0.0412 C   0  0  0  0  0  0  0  0  0  0  0  0
    3.5908   -0.3397   -0.1526 O   0  0  0  0  0  0  0  0  0  0  0  0
    1.8990    1.3056    0.2862 C   0  0  0  0  0  0  0  0  0  0  0  0
    0.5416    1.6178    0.3893 C   0  0  0  0  0  0  0  0  0  0  0  0
   -2.1359    1.9430    0.5208 H   0  0  0  0  0  0  0  0  0  0  0  0
   -3.8290    0.1977    0.1221 H   0  0  0  0  0  0  0  0  0  0  0  0
   -3.1314   -2.1099   -0.4613 H   0  0  0  0  0  0  0  0  0  0  0  0
   -0.7390   -2.6739   -0.6464 H   0  0  0  0  0  0  0  0  0  0  0  0
    1.6537   -1.9817   -0.5212 H   0  0  0  0  0  0  0  0  0  0  0  0
    4.1360    0.4429    0.0303 H   0  0  0  0  0  0  0  0  0  0  0  0
    2.6369    2.0811    0.4637 H   0  0  0  0  0  0  0  0  0  0  0  0
    0.2531    2.6346    0.6460 H   0  0  0  0  0  0  0  0  0  0  0  0
  1  2  2  0
  2  3  1  0
  3  4  2  0
  4  5  1  0
  5  6  2  0
  6  7  1  0
  7  8  2  0
  8  9  1  0
  8 10  1  0
 10 11  2  0
  6  1  1  0
 11  1  1  0
  2 12  1  0
  3 13  1  0
  4 14  1  0
  5 15  1  0
  7 16  1  0
  9 17  1  0
 10 18  1  0
 11 19  1  0
M  END
>  <SMILES>  (1) 
Oc1ccc2ccccc2c1

>  <MMFF94_Energy_kcal>  (1) 
19.2336

$$$$
