Beam 4 / 反应物 1
     RDKit          3D

 17 18  0  0  0  0  0  0  0  0999 V2000
   -2.9212   -1.4145    0.8267 O   0  0  0  0  0  0  0  0  0  0  0  0
   -1.7985   -0.6732    0.5873 C   0  0  0  0  0  0  0  0  0  0  0  0
   -1.8797    0.6970    0.3623 C   0  0  0  0  0  0  0  0  0  0  0  0
   -0.7160    1.4380    0.1187 C   0  0  0  0  0  0  0  0  0  0  0  0
    0.5316    0.7832    0.1042 C   0  0  0  0  0  0  0  0  0  0  0  0
    1.8719    1.2110   -0.1038 C   0  0  0  0  0  0  0  0  0  0  0  0
    2.6865    0.1065    0.0019 C   0  0  0  0  0  0  0  0  0  0  0  0
    1.8913   -0.9772    0.2665 N   0  0  0  0  0  0  0  0  0  0  0  0
    0.5713   -0.5926    0.3343 C   0  0  0  0  0  0  0  0  0  0  0  0
   -0.5798   -1.3502    0.5794 C   0  0  0  0  0  0  0  0  0  0  0  0
   -3.6906   -0.8227    0.8037 H   0  0  0  0  0  0  0  0  0  0  0  0
   -2.8353    1.2117    0.3712 H   0  0  0  0  0  0  0  0  0  0  0  0
   -0.7753    2.5079   -0.0573 H   0  0  0  0  0  0  0  0  0  0  0  0
    2.2024    2.2206   -0.3090 H   0  0  0  0  0  0  0  0  0  0  0  0
    3.7589   -0.0017   -0.0880 H   0  0  0  0  0  0  0  0  0  0  0  0
    2.2179   -1.9249    0.3948 H   0  0  0  0  0  0  0  0  0  0  0  0
   -0.5354   -2.4189    0.7568 H   0  0  0  0  0  0  0  0  0  0  0  0
  1  2  1  0
  2  3  2  0
  3  4  1  0
  4  5  2  0
  5  6  1  0
  6  7  2  0
  7  8  1  0
  8  9  1  0
  9 10  2  0
 10  2  1  0
  9  5  1  0
  1 11  1  0
  3 12  1  0
  4 13  1  0
  6 14  1  0
  7 15  1  0
  8 16  1  0
 10 17  1  0
M  END
>  <SMILES>  (1) 
Oc1ccc2cc[nH]c2c1

>  <MMFF94_Energy_kcal>  (1) 
4.008

$$$$
