Beam 1 / 反应物 1
     RDKit          3D

 17 18  0  0  0  0  0  0  0  0999 V2000
    3.2793   -0.4853   -0.2190 O   0  0  0  0  0  0  0  0  0  0  0  0
    1.9625   -0.1320   -0.1316 C   0  0  0  0  0  0  0  0  0  0  0  0
    1.6631    1.2245   -0.1163 C   0  0  0  0  0  0  0  0  0  0  0  0
    0.3383    1.6618   -0.0287 C   0  0  0  0  0  0  0  0  0  0  0  0
   -0.6611    0.6837    0.0421 C   0  0  0  0  0  0  0  0  0  0  0  0
   -2.0285    0.8158    0.1336 N   0  0  0  0  0  0  0  0  0  0  0  0
   -2.6215   -0.4182    0.1779 C   0  0  0  0  0  0  0  0  0  0  0  0
   -1.6261   -1.3664    0.1143 C   0  0  0  0  0  0  0  0  0  0  0  0
   -0.3808   -0.6836    0.0281 C   0  0  0  0  0  0  0  0  0  0  0  0
    0.9616   -1.1038   -0.0608 C   0  0  0  0  0  0  0  0  0  0  0  0
    3.3366   -1.4547   -0.2194 H   0  0  0  0  0  0  0  0  0  0  0  0
    2.4682    1.9525   -0.1731 H   0  0  0  0  0  0  0  0  0  0  0  0
    0.1026    2.7206   -0.0166 H   0  0  0  0  0  0  0  0  0  0  0  0
   -2.5173    1.6998    0.1634 H   0  0  0  0  0  0  0  0  0  0  0  0
   -3.6964   -0.5145    0.2506 H   0  0  0  0  0  0  0  0  0  0  0  0
   -1.7751   -2.4380    0.1282 H   0  0  0  0  0  0  0  0  0  0  0  0
    1.1946   -2.1621   -0.0727 H   0  0  0  0  0  0  0  0  0  0  0  0
  1  2  1  0
  2  3  2  0
  3  4  1  0
  4  5  2  0
  5  6  1  0
  6  7  1  0
  7  8  2  0
  8  9  1  0
  9 10  2  0
 10  2  1  0
  9  5  1  0
  1 11  1  0
  3 12  1  0
  4 13  1  0
  6 14  1  0
  7 15  1  0
  8 16  1  0
 10 17  1  0
M  END
>  <SMILES>  (1) 
Oc1ccc2[nH]ccc2c1

>  <MMFF94_Energy_kcal>  (1) 
3.6612

$$$$
