Beam 6 / 反应物 1
     RDKit          3D

 16 17  0  0  0  0  0  0  0  0999 V2000
   -2.1517    0.6511    0.0918 C   0  0  0  0  0  0  0  0  0  0  0  0
   -2.1084   -0.7416    0.0706 C   0  0  0  0  0  0  0  0  0  0  0  0
   -0.8903   -1.4258    0.0141 C   0  0  0  0  0  0  0  0  0  0  0  0
    0.2803   -0.6595   -0.0200 C   0  0  0  0  0  0  0  0  0  0  0  0
    1.6005   -1.0508   -0.0763 N   0  0  0  0  0  0  0  0  0  0  0  0
    2.3952    0.0514   -0.0913 C   0  0  0  0  0  0  0  0  0  0  0  0
    4.0747   -0.1740   -0.1590 Cl  0  0  0  0  0  0  0  0  0  0  0  0
    1.6235    1.1785   -0.0458 C   0  0  0  0  0  0  0  0  0  0  0  0
    0.2685    0.7398    0.0001 C   0  0  0  0  0  0  0  0  0  0  0  0
   -0.9720    1.4039    0.0571 C   0  0  0  0  0  0  0  0  0  0  0  0
   -3.1112    1.1607    0.1358 H   0  0  0  0  0  0  0  0  0  0  0  0
   -3.0375   -1.3069    0.0983 H   0  0  0  0  0  0  0  0  0  0  0  0
   -0.8622   -2.5104   -0.0022 H   0  0  0  0  0  0  0  0  0  0  0  0
    1.9286   -2.0050   -0.1023 H   0  0  0  0  0  0  0  0  0  0  0  0
    1.9783    2.1997   -0.0451 H   0  0  0  0  0  0  0  0  0  0  0  0
   -1.0162    2.4889    0.0740 H   0  0  0  0  0  0  0  0  0  0  0  0
  1  2  2  0
  2  3  1  0
  3  4  2  0
  4  5  1  0
  5  6  1  0
  6  7  1  0
  6  8  2  0
  8  9  1  0
  9 10  2  0
 10  1  1  0
  9  4  1  0
  1 11  1  0
  2 12  1  0
  3 13  1  0
  5 14  1  0
  8 15  1  0
 10 16  1  0
M  END
>  <SMILES>  (1) 
Clc1cc2ccccc2[nH]1

>  <MMFF94_Energy_kcal>  (1) 
9.2324

$$$$
