Beam 5 / 反应物 1
     RDKit          3D

 32 32  0  0  0  0  0  0  0  0999 V2000
   -0.3724    1.0399    0.2393 C   0  0  0  0  0  0  0  0  0  0  0  0
   -1.6975    0.8054    0.1767 C   0  0  0  0  0  0  0  0  0  0  0  0
   -2.6775    1.8449    0.5403 C   0  0  0  0  0  0  0  0  0  0  0  0
   -2.3615    3.0009    0.7953 O   0  0  0  0  0  0  0  0  0  0  0  0
   -3.9414    1.3594    0.5750 O   0  0  0  0  0  0  0  0  0  0  0  0
   -4.9320    2.3239    0.9268 C   0  0  0  0  0  0  0  0  0  0  0  0
   -1.9139   -0.5563   -0.2861 C   0  0  0  0  0  0  0  0  0  0  0  0
   -3.1799   -1.0209   -0.4676 O   0  0  0  0  0  0  0  0  0  0  0  0
   -3.2950   -2.3537   -0.9497 C   0  0  0  0  0  0  0  0  0  0  0  0
   -0.7248   -1.1541   -0.4918 C   0  0  0  0  0  0  0  0  0  0  0  0
    0.3163   -0.1800   -0.1682 C   0  0  0  0  0  0  0  0  0  0  0  0
    1.6502   -0.4079   -0.2506 C   0  0  0  0  0  0  0  0  0  0  0  0
    2.1617   -1.6487   -0.6152 N   0  0  0  0  0  0  0  0  0  0  0  0
    2.6222    0.6597    0.0223 C   0  0  0  0  0  0  0  0  0  0  0  0
    3.9585    0.5652    0.1598 C   0  0  0  0  0  0  0  0  0  0  0  0
    4.6128   -0.6541    0.1082 O   0  0  0  0  0  0  0  0  0  0  0  0
    5.8011   -0.6130   -0.6781 C   0  0  0  0  0  0  0  0  0  0  0  0
    4.8451    2.0234    0.5177 Cl  0  0  0  0  0  0  0  0  0  0  0  0
    0.0816    1.9659    0.5540 H   0  0  0  0  0  0  0  0  0  0  0  0
   -4.7513    2.7091    1.9353 H   0  0  0  0  0  0  0  0  0  0  0  0
   -4.9503    3.1397    0.1973 H   0  0  0  0  0  0  0  0  0  0  0  0
   -5.9067    1.8284    0.9156 H   0  0  0  0  0  0  0  0  0  0  0  0
   -4.3595   -2.5878   -1.0440 H   0  0  0  0  0  0  0  0  0  0  0  0
   -2.8376   -2.4532   -1.9397 H   0  0  0  0  0  0  0  0  0  0  0  0
   -2.8531   -3.0654   -0.2444 H   0  0  0  0  0  0  0  0  0  0  0  0
   -0.5505   -2.1497   -0.8614 H   0  0  0  0  0  0  0  0  0  0  0  0
    1.5819   -2.4204   -0.3014 H   0  0  0  0  0  0  0  0  0  0  0  0
    3.1226   -1.7697   -0.2898 H   0  0  0  0  0  0  0  0  0  0  0  0
    2.2028    1.6585    0.1129 H   0  0  0  0  0  0  0  0  0  0  0  0
    6.1169   -1.6447   -0.8598 H   0  0  0  0  0  0  0  0  0  0  0  0
    6.6086   -0.1069   -0.1400 H   0  0  0  0  0  0  0  0  0  0  0  0
    5.6227   -0.1379   -1.6491 H   0  0  0  0  0  0  0  0  0  0  0  0
  1  2  2  0
  2  3  1  0
  3  4  2  0
  3  5  1  0
  5  6  1  0
  2  7  1  0
  7  8  1  0
  8  9  1  0
  7 10  2  0
 10 11  1  0
 11 12  2  3
 12 13  1  0
 12 14  1  0
 14 15  2  3
 15 16  1  0
 16 17  1  0
 15 18  1  0
 11  1  1  0
  1 19  1  0
  6 20  1  0
  6 21  1  0
  6 22  1  0
  9 23  1  0
  9 24  1  0
  9 25  1  0
 10 26  1  0
 13 27  1  0
 13 28  1  0
 14 29  1  0
 17 30  1  0
 17 31  1  0
 17 32  1  0
M  END
>  <SMILES>  (1) 
COC(=O)C1=CC(=C(N)C=C(Cl)OC)C=C1OC

>  <MMFF94_Energy_kcal>  (1) 
41.0528

$$$$
