Beam 2 / 反应物 2
     RDKit          3D

 27 27  0  0  0  0  0  0  0  0999 V2000
    4.1461    0.6496    0.2102 C   0  0  0  0  0  0  0  0  0  0  0  0
    3.3102   -0.1255   -0.7895 C   0  0  0  0  0  0  0  0  0  0  0  0
    1.9598   -0.1516   -0.3161 O   0  0  0  0  0  0  0  0  0  0  0  0
    1.0933   -0.7762   -1.1494 C   0  0  0  0  0  0  0  0  0  0  0  0
    1.3694   -1.3522   -2.1895 O   0  0  0  0  0  0  0  0  0  0  0  0
   -0.2615   -0.7746   -0.5593 C   0  0  0  0  0  0  0  0  0  0  0  0
   -0.9437   -1.9973   -0.5496 C   0  0  0  0  0  0  0  0  0  0  0  0
   -2.2210   -2.0691   -0.0002 C   0  0  0  0  0  0  0  0  0  0  0  0
   -3.0339   -3.5956   -0.0016 Cl  0  0  0  0  0  0  0  0  0  0  0  0
   -2.8256   -0.9358    0.5709 C   0  0  0  0  0  0  0  0  0  0  0  0
   -4.1589   -0.9562    1.0213 N   0  0  0  0  0  0  0  0  0  0  0  0
   -2.1566    0.2955    0.4868 C   0  0  0  0  0  0  0  0  0  0  0  0
   -0.8703    0.3907   -0.0640 C   0  0  0  0  0  0  0  0  0  0  0  0
   -0.1753    1.5630   -0.1994 O   0  0  0  0  0  0  0  0  0  0  0  0
   -0.7369    2.7401    0.3663 C   0  0  0  0  0  0  0  0  0  0  0  0
    4.0986    0.1803    1.1984 H   0  0  0  0  0  0  0  0  0  0  0  0
    3.7635    1.6694    0.3235 H   0  0  0  0  0  0  0  0  0  0  0  0
    5.1910    0.6974   -0.1085 H   0  0  0  0  0  0  0  0  0  0  0  0
    3.3523    0.3673   -1.7674 H   0  0  0  0  0  0  0  0  0  0  0  0
    3.6904   -1.1495   -0.8754 H   0  0  0  0  0  0  0  0  0  0  0  0
   -0.4769   -2.8841   -0.9725 H   0  0  0  0  0  0  0  0  0  0  0  0
   -4.3792   -0.2687    1.7342 H   0  0  0  0  0  0  0  0  0  0  0  0
   -4.4786   -1.8928    1.2645 H   0  0  0  0  0  0  0  0  0  0  0  0
   -2.6748    1.1784    0.8472 H   0  0  0  0  0  0  0  0  0  0  0  0
   -1.6660    3.0154   -0.1430 H   0  0  0  0  0  0  0  0  0  0  0  0
   -0.8930    2.6267    1.4441 H   0  0  0  0  0  0  0  0  0  0  0  0
   -0.0223    3.5555    0.2177 H   0  0  0  0  0  0  0  0  0  0  0  0
  1  2  1  0
  2  3  1  0
  3  4  1  0
  4  5  2  0
  4  6  1  0
  6  7  2  0
  7  8  1  0
  8  9  1  0
  8 10  2  0
 10 11  1  0
 10 12  1  0
 12 13  2  0
 13 14  1  0
 14 15  1  0
 13  6  1  0
  1 16  1  0
  1 17  1  0
  1 18  1  0
  2 19  1  0
  2 20  1  0
  7 21  1  0
 11 22  1  0
 11 23  1  0
 12 24  1  0
 15 25  1  0
 15 26  1  0
 15 27  1  0
M  END
>  <SMILES>  (1) 
CCOC(=O)c1cc(Cl)c(N)cc1OC

>  <MMFF94_Energy_kcal>  (1) 
44.1108

$$$$
