Beam 4 / 反应物 2
     RDKit          3D

 24 24  0  0  0  0  0  0  0  0999 V2000
   -0.9147   -2.4794   -1.1908 C   0  0  0  0  0  0  0  0  0  0  0  0
    0.0597   -1.5009   -0.8526 O   0  0  0  0  0  0  0  0  0  0  0  0
   -0.3787   -0.3051   -0.3493 C   0  0  0  0  0  0  0  0  0  0  0  0
   -1.7289    0.0586   -0.2416 C   0  0  0  0  0  0  0  0  0  0  0  0
   -2.1095    1.3136    0.2592 C   0  0  0  0  0  0  0  0  0  0  0  0
   -3.4701    1.6723    0.2335 N   0  0  0  0  0  0  0  0  0  0  0  0
   -1.1044    2.2482    0.5636 C   0  0  0  0  0  0  0  0  0  0  0  0
   -1.5143    3.8390    1.1044 Cl  0  0  0  0  0  0  0  0  0  0  0  0
    0.2419    1.9068    0.4670 C   0  0  0  0  0  0  0  0  0  0  0  0
    0.6019    0.6248    0.0343 C   0  0  0  0  0  0  0  0  0  0  0  0
    2.0482    0.3306   -0.0353 C   0  0  0  0  0  0  0  0  0  0  0  0
    2.8663    1.1059   -0.5039 O   0  0  0  0  0  0  0  0  0  0  0  0
    2.3106   -0.8446    0.5862 O   0  0  0  0  0  0  0  0  0  0  0  0
    3.6937   -1.1950    0.5966 C   0  0  0  0  0  0  0  0  0  0  0  0
   -1.5205   -2.7527   -0.3206 H   0  0  0  0  0  0  0  0  0  0  0  0
   -0.3848   -3.3775   -1.5225 H   0  0  0  0  0  0  0  0  0  0  0  0
   -1.5423   -2.1381   -2.0205 H   0  0  0  0  0  0  0  0  0  0  0  0
   -2.5152   -0.6184   -0.5599 H   0  0  0  0  0  0  0  0  0  0  0  0
   -4.1166    0.9056    0.3874 H   0  0  0  0  0  0  0  0  0  0  0  0
   -3.6752    2.4836    0.8152 H   0  0  0  0  0  0  0  0  0  0  0  0
    1.0122    2.6312    0.7224 H   0  0  0  0  0  0  0  0  0  0  0  0
    4.0782   -1.2774   -0.4250 H   0  0  0  0  0  0  0  0  0  0  0  0
    4.2694   -0.4616    1.1697 H   0  0  0  0  0  0  0  0  0  0  0  0
    3.7930   -2.1695    1.0826 H   0  0  0  0  0  0  0  0  0  0  0  0
  1  2  1  0
  2  3  1  0
  3  4  2  0
  4  5  1  0
  5  6  1  0
  5  7  2  0
  7  8  1  0
  7  9  1  0
  9 10  2  0
 10 11  1  0
 11 12  2  0
 11 13  1  0
 13 14  1  0
 10  3  1  0
  1 15  1  0
  1 16  1  0
  1 17  1  0
  4 18  1  0
  6 19  1  0
  6 20  1  0
  9 21  1  0
 14 22  1  0
 14 23  1  0
 14 24  1  0
M  END
>  <SMILES>  (1) 
COC(=O)c1cc(Cl)c(N)cc1OC

>  <MMFF94_Energy_kcal>  (1) 
46.5156

$$$$
