Beam 1 / 反应物 1
     RDKit          3D

 24 23  0  0  0  0  0  0  0  0999 V2000
   -1.7297    1.8395    0.4520 C   0  0  0  0  0  0  0  0  0  0  0  0
   -0.9038    1.1128   -0.6059 C   0  0  0  0  0  0  0  0  0  0  0  0
   -0.1851   -0.0523   -0.0493 N   0  0  0  0  0  0  0  0  0  0  0  0
   -1.1068   -1.1893    0.1453 C   0  0  0  0  0  0  0  0  0  0  0  0
   -0.5535   -2.2172    1.1286 C   0  0  0  0  0  0  0  0  0  0  0  0
    0.9361   -0.4387   -0.9459 C   0  0  0  0  0  0  0  0  0  0  0  0
    2.1445    0.5256   -0.8628 C   0  0  0  0  0  0  0  0  0  0  0  0
    2.4638    0.8857    0.5246 N   0  0  0  0  0  0  0  0  0  0  0  0
   -2.1510    2.7571    0.0278 H   0  0  0  0  0  0  0  0  0  0  0  0
   -1.1084    2.1228    1.3083 H   0  0  0  0  0  0  0  0  0  0  0  0
   -2.5651    1.2358    0.8170 H   0  0  0  0  0  0  0  0  0  0  0  0
   -0.1940    1.8515   -0.9936 H   0  0  0  0  0  0  0  0  0  0  0  0
   -1.5403    0.8194   -1.4502 H   0  0  0  0  0  0  0  0  0  0  0  0
   -2.0565   -0.8467    0.5695 H   0  0  0  0  0  0  0  0  0  0  0  0
   -1.3499   -1.6707   -0.8103 H   0  0  0  0  0  0  0  0  0  0  0  0
    0.3292   -2.7329    0.7409 H   0  0  0  0  0  0  0  0  0  0  0  0
   -0.2876   -1.7458    2.0809 H   0  0  0  0  0  0  0  0  0  0  0  0
   -1.3124   -2.9795    1.3344 H   0  0  0  0  0  0  0  0  0  0  0  0
    1.3183   -1.4241   -0.6566 H   0  0  0  0  0  0  0  0  0  0  0  0
    0.5991   -0.5280   -1.9866 H   0  0  0  0  0  0  0  0  0  0  0  0
    1.9375    1.4441   -1.4212 H   0  0  0  0  0  0  0  0  0  0  0  0
    3.0204    0.0605   -1.3279 H   0  0  0  0  0  0  0  0  0  0  0  0
    1.5679    1.1358    0.9593 H   0  0  0  0  0  0  0  0  0  0  0  0
    2.7274    0.0347    1.0217 H   0  0  0  0  0  0  0  0  0  0  0  0
  1  2  1  0
  2  3  1  0
  3  4  1  0
  4  5  1  0
  3  6  1  0
  6  7  1  0
  7  8  1  0
  1  9  1  0
  1 10  1  0
  1 11  1  0
  2 12  1  0
  2 13  1  0
  4 14  1  0
  4 15  1  0
  5 16  1  0
  5 17  1  0
  5 18  1  0
  6 19  1  0
  6 20  1  0
  7 21  1  0
  7 22  1  0
  8 23  1  0
  8 24  1  0
M  END
>  <SMILES>  (1) 
CCN(CC)CCN

>  <MMFF94_Energy_kcal>  (1) 
20.3647

$$$$
