Beam 3 / 反应物 2
     RDKit          3D

 24 24  0  0  0  0  0  0  0  0999 V2000
   -1.5556   -2.6032   -0.8490 C   0  0  0  0  0  0  0  0  0  0  0  0
   -0.7075   -1.7277   -0.1164 O   0  0  0  0  0  0  0  0  0  0  0  0
   -0.8765   -0.3779   -0.2884 C   0  0  0  0  0  0  0  0  0  0  0  0
   -1.9570    0.1902   -0.9695 C   0  0  0  0  0  0  0  0  0  0  0  0
   -2.0705    1.5768   -1.0637 C   0  0  0  0  0  0  0  0  0  0  0  0
   -3.3879    2.2634   -1.9352 Cl  0  0  0  0  0  0  0  0  0  0  0  0
   -1.1352    2.4144   -0.4596 C   0  0  0  0  0  0  0  0  0  0  0  0
   -0.0761    1.8773    0.2798 C   0  0  0  0  0  0  0  0  0  0  0  0
    0.9048    2.7592    0.7792 N   0  0  0  0  0  0  0  0  0  0  0  0
    0.0831    0.4727    0.3010 C   0  0  0  0  0  0  0  0  0  0  0  0
    1.2612   -0.0876    1.0012 C   0  0  0  0  0  0  0  0  0  0  0  0
    1.6270    0.2906    2.1052 O   0  0  0  0  0  0  0  0  0  0  0  0
    1.9016   -0.9754    0.2005 O   0  0  0  0  0  0  0  0  0  0  0  0
    3.0792   -1.5328    0.7815 C   0  0  0  0  0  0  0  0  0  0  0  0
   -2.5899   -2.5300   -0.4980 H   0  0  0  0  0  0  0  0  0  0  0  0
   -1.4871   -2.4149   -1.9255 H   0  0  0  0  0  0  0  0  0  0  0  0
   -1.2147   -3.6271   -0.6677 H   0  0  0  0  0  0  0  0  0  0  0  0
   -2.7227   -0.4213   -1.4349 H   0  0  0  0  0  0  0  0  0  0  0  0
   -1.2341    3.4921   -0.5632 H   0  0  0  0  0  0  0  0  0  0  0  0
    1.4452    2.3473    1.5471 H   0  0  0  0  0  0  0  0  0  0  0  0
    0.5525    3.6781    1.0301 H   0  0  0  0  0  0  0  0  0  0  0  0
    3.8227   -0.7506    0.9640 H   0  0  0  0  0  0  0  0  0  0  0  0
    3.4997   -2.2516    0.0729 H   0  0  0  0  0  0  0  0  0  0  0  0
    2.8376   -2.0620    1.7087 H   0  0  0  0  0  0  0  0  0  0  0  0
  1  2  1  0
  2  3  1  0
  3  4  2  0
  4  5  1  0
  5  6  1  0
  5  7  2  0
  7  8  1  0
  8  9  1  0
  8 10  2  0
 10 11  1  0
 11 12  2  0
 11 13  1  0
 13 14  1  0
 10  3  1  0
  1 15  1  0
  1 16  1  0
  1 17  1  0
  4 18  1  0
  7 19  1  0
  9 20  1  0
  9 21  1  0
 14 22  1  0
 14 23  1  0
 14 24  1  0
M  END
>  <SMILES>  (1) 
COC(=O)c1c(N)cc(Cl)cc1OC

>  <MMFF94_Energy_kcal>  (1) 
50.2004

$$$$
