Beam 1 / 反应物 2
     RDKit          3D

 24 24  0  0  0  0  0  0  0  0999 V2000
   -3.6365    1.5802   -0.6576 C   0  0  0  0  0  0  0  0  0  0  0  0
   -3.1037    0.2665   -0.5421 O   0  0  0  0  0  0  0  0  0  0  0  0
   -1.7831    0.1577   -0.1761 C   0  0  0  0  0  0  0  0  0  0  0  0
   -0.9956    1.2096    0.3014 C   0  0  0  0  0  0  0  0  0  0  0  0
    0.3435    0.9883    0.6447 C   0  0  0  0  0  0  0  0  0  0  0  0
    1.2293    2.3236    1.2935 Cl  0  0  0  0  0  0  0  0  0  0  0  0
    0.8991   -0.2842    0.4900 C   0  0  0  0  0  0  0  0  0  0  0  0
    2.3045   -0.5894    0.8019 C   0  0  0  0  0  0  0  0  0  0  0  0
    2.6459   -1.5003    1.5373 O   0  0  0  0  0  0  0  0  0  0  0  0
    3.1112    0.2216    0.0778 O   0  0  0  0  0  0  0  0  0  0  0  0
    4.5037   -0.0188    0.2811 C   0  0  0  0  0  0  0  0  0  0  0  0
    0.1061   -1.3463    0.0375 C   0  0  0  0  0  0  0  0  0  0  0  0
   -1.2425   -1.1425   -0.2623 C   0  0  0  0  0  0  0  0  0  0  0  0
   -1.9854   -2.1859   -0.8447 N   0  0  0  0  0  0  0  0  0  0  0  0
   -4.6501    1.4951   -1.0611 H   0  0  0  0  0  0  0  0  0  0  0  0
   -3.0504    2.1885   -1.3546 H   0  0  0  0  0  0  0  0  0  0  0  0
   -3.7085    2.0601    0.3236 H   0  0  0  0  0  0  0  0  0  0  0  0
   -1.4040    2.2073    0.4240 H   0  0  0  0  0  0  0  0  0  0  0  0
    4.7694    0.1261    1.3330 H   0  0  0  0  0  0  0  0  0  0  0  0
    5.0636    0.7030   -0.3198 H   0  0  0  0  0  0  0  0  0  0  0  0
    4.7696   -1.0273   -0.0508 H   0  0  0  0  0  0  0  0  0  0  0  0
    0.5482   -2.3323   -0.0890 H   0  0  0  0  0  0  0  0  0  0  0  0
   -2.9852   -1.9894   -0.8059 H   0  0  0  0  0  0  0  0  0  0  0  0
   -1.7492   -3.1110   -0.5020 H   0  0  0  0  0  0  0  0  0  0  0  0
  1  2  1  0
  2  3  1  0
  3  4  2  0
  4  5  1  0
  5  6  1  0
  5  7  2  0
  7  8  1  0
  8  9  2  0
  8 10  1  0
 10 11  1  0
  7 12  1  0
 12 13  2  0
 13 14  1  0
 13  3  1  0
  1 15  1  0
  1 16  1  0
  1 17  1  0
  4 18  1  0
 11 19  1  0
 11 20  1  0
 11 21  1  0
 12 22  1  0
 14 23  1  0
 14 24  1  0
M  END
>  <SMILES>  (1) 
COC(=O)c1cc(N)c(OC)cc1Cl

>  <MMFF94_Energy_kcal>  (1) 
28.2308

$$$$
