Metoclopramide (Target)
     RDKit          3D

 42 42  0  0  0  0  0  0  0  0999 V2000
   -2.4194   -1.1894   -2.4446 C   0  0  0  0  0  0  0  0  0  0  0  0
   -2.7339   -0.9442   -0.9717 C   0  0  0  0  0  0  0  0  0  0  0  0
   -1.8118   -1.6249   -0.0478 N   0  0  0  0  0  0  0  0  0  0  0  0
   -1.7646   -3.0878   -0.2100 C   0  0  0  0  0  0  0  0  0  0  0  0
   -3.0762   -3.8388    0.0005 C   0  0  0  0  0  0  0  0  0  0  0  0
   -2.0824   -1.2514    1.3633 C   0  0  0  0  0  0  0  0  0  0  0  0
   -1.7221    0.2069    1.7029 C   0  0  0  0  0  0  0  0  0  0  0  0
   -0.4006    0.5505    1.2205 N   0  0  0  0  0  0  0  0  0  0  0  0
    0.2026    1.7443    1.5262 C   0  0  0  0  0  0  0  0  0  0  0  0
   -0.2635    2.5173    2.3593 O   0  0  0  0  0  0  0  0  0  0  0  0
    1.4766    2.0874    0.8095 C   0  0  0  0  0  0  0  0  0  0  0  0
    2.1582    3.2225    1.2807 C   0  0  0  0  0  0  0  0  0  0  0  0
    3.3555    3.6264    0.6933 C   0  0  0  0  0  0  0  0  0  0  0  0
    3.9259    2.8902   -0.3553 C   0  0  0  0  0  0  0  0  0  0  0  0
    3.2157    1.7927   -0.8608 C   0  0  0  0  0  0  0  0  0  0  0  0
    2.0066    1.3687   -0.2830 C   0  0  0  0  0  0  0  0  0  0  0  0
    1.2902    0.2955   -0.7478 O   0  0  0  0  0  0  0  0  0  0  0  0
    1.8465   -0.4905   -1.7948 C   0  0  0  0  0  0  0  0  0  0  0  0
    5.0661    3.3421   -1.0454 N   0  0  0  0  0  0  0  0  0  0  0  0
    4.1450    5.0363    1.3106 Cl  0  0  0  0  0  0  0  0  0  0  0  0
   -3.0458   -0.5448   -3.0704 H   0  0  0  0  0  0  0  0  0  0  0  0
   -1.3733   -0.9572   -2.6692 H   0  0  0  0  0  0  0  0  0  0  0  0
   -2.6199   -2.2236   -2.7395 H   0  0  0  0  0  0  0  0  0  0  0  0
   -2.6622    0.1390   -0.8237 H   0  0  0  0  0  0  0  0  0  0  0  0
   -3.7761   -1.2178   -0.7691 H   0  0  0  0  0  0  0  0  0  0  0  0
   -1.0156   -3.4950    0.4817 H   0  0  0  0  0  0  0  0  0  0  0  0
   -1.3714   -3.3317   -1.2038 H   0  0  0  0  0  0  0  0  0  0  0  0
   -2.9085   -4.9142   -0.1223 H   0  0  0  0  0  0  0  0  0  0  0  0
   -3.4768   -3.6825    1.0064 H   0  0  0  0  0  0  0  0  0  0  0  0
   -3.8366   -3.5417   -0.7276 H   0  0  0  0  0  0  0  0  0  0  0  0
   -3.1285   -1.4392    1.6332 H   0  0  0  0  0  0  0  0  0  0  0  0
   -1.4647   -1.8832    2.0154 H   0  0  0  0  0  0  0  0  0  0  0  0
   -2.4351    0.9089    1.2577 H   0  0  0  0  0  0  0  0  0  0  0  0
   -1.7502    0.3596    2.7877 H   0  0  0  0  0  0  0  0  0  0  0  0
   -0.0799    0.0428    0.3985 H   0  0  0  0  0  0  0  0  0  0  0  0
    1.7487    3.7972    2.1097 H   0  0  0  0  0  0  0  0  0  0  0  0
    3.6277    1.2848   -1.7269 H   0  0  0  0  0  0  0  0  0  0  0  0
    2.8164   -0.9078   -1.5052 H   0  0  0  0  0  0  0  0  0  0  0  0
    1.9214    0.0879   -2.7211 H   0  0  0  0  0  0  0  0  0  0  0  0
    1.1672   -1.3282   -1.9794 H   0  0  0  0  0  0  0  0  0  0  0  0
    5.6324    3.9816   -0.4893 H   0  0  0  0  0  0  0  0  0  0  0  0
    5.6164    2.6110   -1.4833 H   0  0  0  0  0  0  0  0  0  0  0  0
  1  2  1  0
  2  3  1  0
  3  4  1  0
  4  5  1  0
  3  6  1  0
  6  7  1  0
  7  8  1  0
  8  9  1  0
  9 10  2  0
  9 11  1  0
 11 12  2  0
 12 13  1  0
 13 14  2  0
 14 15  1  0
 15 16  2  0
 16 17  1  0
 17 18  1  0
 14 19  1  0
 13 20  1  0
 16 11  1  0
  1 21  1  0
  1 22  1  0
  1 23  1  0
  2 24  1  0
  2 25  1  0
  4 26  1  0
  4 27  1  0
  5 28  1  0
  5 29  1  0
  5 30  1  0
  6 31  1  0
  6 32  1  0
  7 33  1  0
  7 34  1  0
  8 35  1  0
 12 36  1  0
 15 37  1  0
 18 38  1  0
 18 39  1  0
 18 40  1  0
 19 41  1  0
 19 42  1  0
M  END
>  <SMILES>  (1) 
CCN(CC)CCNC(=O)c1cc(Cl)c(N)cc1OC

>  <MMFF94_Energy_kcal>  (1) 
42.4207

$$$$
