target_metoclopramide
     RDKit          3D

 42 42  0  0  0  0  0  0  0  0999 V2000
    4.4174    0.0408    2.1327 C   0  0  0  0  0  0  0  0  0  0  0  0
    4.1662    0.9673    0.9461 C   0  0  0  0  0  0  0  0  0  0  0  0
    3.3937    0.4043   -0.1745 N   0  0  0  0  0  0  0  0  0  0  0  0
    4.0170   -0.7719   -0.8040 C   0  0  0  0  0  0  0  0  0  0  0  0
    5.4293   -0.5193   -1.3252 C   0  0  0  0  0  0  0  0  0  0  0  0
    1.9953    0.1369    0.2203 C   0  0  0  0  0  0  0  0  0  0  0  0
    1.0281   -0.0566   -0.9623 C   0  0  0  0  0  0  0  0  0  0  0  0
   -0.3557   -0.0927   -0.5187 N   0  0  0  0  0  0  0  0  0  0  0  0
   -1.3285   -0.7685   -1.2190 C   0  0  0  0  0  0  0  0  0  0  0  0
   -1.0681   -1.5219   -2.1525 O   0  0  0  0  0  0  0  0  0  0  0  0
   -2.7547   -0.5725   -0.7924 C   0  0  0  0  0  0  0  0  0  0  0  0
   -3.6894   -1.4596   -1.3534 C   0  0  0  0  0  0  0  0  0  0  0  0
   -5.0395   -1.3730   -1.0195 C   0  0  0  0  0  0  0  0  0  0  0  0
   -6.1444   -2.4869   -1.7473 Cl  0  0  0  0  0  0  0  0  0  0  0  0
   -5.4895   -0.4266   -0.0877 C   0  0  0  0  0  0  0  0  0  0  0  0
   -6.8582   -0.2407    0.1801 N   0  0  0  0  0  0  0  0  0  0  0  0
   -4.5653    0.4942    0.4252 C   0  0  0  0  0  0  0  0  0  0  0  0
   -3.2007    0.4308    0.0935 C   0  0  0  0  0  0  0  0  0  0  0  0
   -2.2674    1.3087    0.5885 O   0  0  0  0  0  0  0  0  0  0  0  0
   -2.7350    2.4418    1.3140 C   0  0  0  0  0  0  0  0  0  0  0  0
    4.9815    0.5755    2.9043 H   0  0  0  0  0  0  0  0  0  0  0  0
    3.4822   -0.2993    2.5873 H   0  0  0  0  0  0  0  0  0  0  0  0
    5.0051   -0.8365    1.8471 H   0  0  0  0  0  0  0  0  0  0  0  0
    3.6539    1.8673    1.3107 H   0  0  0  0  0  0  0  0  0  0  0  0
    5.1287    1.3394    0.5761 H   0  0  0  0  0  0  0  0  0  0  0  0
    3.4244   -1.0725   -1.6748 H   0  0  0  0  0  0  0  0  0  0  0  0
    4.0281   -1.6300   -0.1214 H   0  0  0  0  0  0  0  0  0  0  0  0
    5.4583    0.3597   -1.9776 H   0  0  0  0  0  0  0  0  0  0  0  0
    5.7690   -1.3807   -1.9101 H   0  0  0  0  0  0  0  0  0  0  0  0
    6.1463   -0.3755   -0.5115 H   0  0  0  0  0  0  0  0  0  0  0  0
    1.9324   -0.7356    0.8834 H   0  0  0  0  0  0  0  0  0  0  0  0
    1.6222    0.9916    0.8009 H   0  0  0  0  0  0  0  0  0  0  0  0
    1.1117    0.7783   -1.6671 H   0  0  0  0  0  0  0  0  0  0  0  0
    1.2506   -0.9804   -1.5049 H   0  0  0  0  0  0  0  0  0  0  0  0
   -0.6744    0.6441    0.1024 H   0  0  0  0  0  0  0  0  0  0  0  0
   -3.3610   -2.2213   -2.0586 H   0  0  0  0  0  0  0  0  0  0  0  0
   -7.0667    0.1430    1.0958 H   0  0  0  0  0  0  0  0  0  0  0  0
   -7.4160   -1.0659   -0.0368 H   0  0  0  0  0  0  0  0  0  0  0  0
   -4.9437    1.2646    1.0894 H   0  0  0  0  0  0  0  0  0  0  0  0
   -3.1864    2.1387    2.2640 H   0  0  0  0  0  0  0  0  0  0  0  0
   -1.8683    3.0692    1.5438 H   0  0  0  0  0  0  0  0  0  0  0  0
   -3.4287    3.0398    0.7139 H   0  0  0  0  0  0  0  0  0  0  0  0
  1  2  1  0
  2  3  1  0
  3  4  1  0
  4  5  1  0
  3  6  1  0
  6  7  1  0
  7  8  1  0
  8  9  1  0
  9 10  2  0
  9 11  1  0
 11 12  2  0
 12 13  1  0
 13 14  1  0
 13 15  2  0
 15 16  1  0
 15 17  1  0
 17 18  2  0
 18 19  1  0
 19 20  1  0
 18 11  1  0
  1 21  1  0
  1 22  1  0
  1 23  1  0
  2 24  1  0
  2 25  1  0
  4 26  1  0
  4 27  1  0
  5 28  1  0
  5 29  1  0
  5 30  1  0
  6 31  1  0
  6 32  1  0
  7 33  1  0
  7 34  1  0
  8 35  1  0
 12 36  1  0
 16 37  1  0
 16 38  1  0
 17 39  1  0
 20 40  1  0
 20 41  1  0
 20 42  1  0
M  END
>  <SMILES>  (1) 
CCN(CC)CCNC(=O)c1cc(Cl)c(N)cc1OC

$$$$
beam1_mol1
     RDKit          3D

 24 23  0  0  0  0  0  0  0  0999 V2000
   -2.1237   -1.5833    0.7594 C   0  0  0  0  0  0  0  0  0  0  0  0
   -1.0521   -1.2244   -0.2664 C   0  0  0  0  0  0  0  0  0  0  0  0
   -0.3600    0.0359    0.0718 N   0  0  0  0  0  0  0  0  0  0  0  0
   -1.1977    1.1988   -0.2836 C   0  0  0  0  0  0  0  0  0  0  0  0
   -0.7816    2.4572    0.4732 C   0  0  0  0  0  0  0  0  0  0  0  0
    0.9468    0.1064   -0.6242 C   0  0  0  0  0  0  0  0  0  0  0  0
    2.0323   -0.7550    0.0585 C   0  0  0  0  0  0  0  0  0  0  0  0
    3.3380   -0.5908   -0.5885 N   0  0  0  0  0  0  0  0  0  0  0  0
   -2.9550   -0.8731    0.7607 H   0  0  0  0  0  0  0  0  0  0  0  0
   -2.5382   -2.5713    0.5327 H   0  0  0  0  0  0  0  0  0  0  0  0
   -1.7021   -1.6225    1.7695 H   0  0  0  0  0  0  0  0  0  0  0  0
   -1.4888   -1.1793   -1.2722 H   0  0  0  0  0  0  0  0  0  0  0  0
   -0.3469   -2.0623   -0.2733 H   0  0  0  0  0  0  0  0  0  0  0  0
   -2.2442    1.0172   -0.0162 H   0  0  0  0  0  0  0  0  0  0  0  0
   -1.1827    1.3829   -1.3653 H   0  0  0  0  0  0  0  0  0  0  0  0
   -1.4880    3.2672    0.2629 H   0  0  0  0  0  0  0  0  0  0  0  0
    0.2130    2.8085    0.1851 H   0  0  0  0  0  0  0  0  0  0  0  0
   -0.7858    2.2837    1.5547 H   0  0  0  0  0  0  0  0  0  0  0  0
    1.3192    1.1374   -0.6206 H   0  0  0  0  0  0  0  0  0  0  0  0
    0.8405   -0.1772   -1.6800 H   0  0  0  0  0  0  0  0  0  0  0  0
    2.1224   -0.4710    1.1133 H   0  0  0  0  0  0  0  0  0  0  0  0
    1.7702   -1.8163    0.0237 H   0  0  0  0  0  0  0  0  0  0  0  0
    3.6380    0.3790   -0.4924 H   0  0  0  0  0  0  0  0  0  0  0  0
    4.0263   -1.1477   -0.0828 H   0  0  0  0  0  0  0  0  0  0  0  0
  1  2  1  0
  2  3  1  0
  3  4  1  0
  4  5  1  0
  3  6  1  0
  6  7  1  0
  7  8  1  0
  1  9  1  0
  1 10  1  0
  1 11  1  0
  2 12  1  0
  2 13  1  0
  4 14  1  0
  4 15  1  0
  5 16  1  0
  5 17  1  0
  5 18  1  0
  6 19  1  0
  6 20  1  0
  7 21  1  0
  7 22  1  0
  8 23  1  0
  8 24  1  0
M  END
>  <SMILES>  (2) 
CCN(CC)CCN

$$$$
beam1_mol2
     RDKit          3D

 24 24  0  0  0  0  0  0  0  0999 V2000
   -4.4396    0.3063   -0.8162 C   0  0  0  0  0  0  0  0  0  0  0  0
   -3.0372    0.0388   -0.7742 O   0  0  0  0  0  0  0  0  0  0  0  0
   -2.3596    0.8217    0.1035 C   0  0  0  0  0  0  0  0  0  0  0  0
   -2.8311    1.6786    0.8290 O   0  0  0  0  0  0  0  0  0  0  0  0
   -0.9293    0.4655    0.0394 C   0  0  0  0  0  0  0  0  0  0  0  0
   -0.5677   -0.8833    0.1695 C   0  0  0  0  0  0  0  0  0  0  0  0
    0.7756   -1.2636    0.1248 C   0  0  0  0  0  0  0  0  0  0  0  0
    1.1234   -2.6020    0.3837 N   0  0  0  0  0  0  0  0  0  0  0  0
    1.7739   -0.2716    0.0348 C   0  0  0  0  0  0  0  0  0  0  0  0
    3.0663   -0.7400    0.0498 O   0  0  0  0  0  0  0  0  0  0  0  0
    4.1018    0.2269    0.1756 C   0  0  0  0  0  0  0  0  0  0  0  0
    1.4110    1.0711   -0.1025 C   0  0  0  0  0  0  0  0  0  0  0  0
    0.0603    1.4408   -0.1044 C   0  0  0  0  0  0  0  0  0  0  0  0
   -0.3020    3.1153   -0.3308 Cl  0  0  0  0  0  0  0  0  0  0  0  0
   -4.8902   -0.3640   -1.5533 H   0  0  0  0  0  0  0  0  0  0  0  0
   -4.8967    0.1075    0.1583 H   0  0  0  0  0  0  0  0  0  0  0  0
   -4.6242    1.3390   -1.1284 H   0  0  0  0  0  0  0  0  0  0  0  0
   -1.3364   -1.6375    0.3205 H   0  0  0  0  0  0  0  0  0  0  0  0
    0.4682   -3.2863    0.0222 H   0  0  0  0  0  0  0  0  0  0  0  0
    2.0881   -2.7891    0.1109 H   0  0  0  0  0  0  0  0  0  0  0  0
    3.9618    0.8481    1.0666 H   0  0  0  0  0  0  0  0  0  0  0  0
    5.0482   -0.3104    0.2897 H   0  0  0  0  0  0  0  0  0  0  0  0
    4.1749    0.8405   -0.7280 H   0  0  0  0  0  0  0  0  0  0  0  0
    2.1604    1.8478   -0.2149 H   0  0  0  0  0  0  0  0  0  0  0  0
  1  2  1  0
  2  3  1  0
  3  4  2  0
  3  5  1  0
  5  6  2  0
  6  7  1  0
  7  8  1  0
  7  9  2  0
  9 10  1  0
 10 11  1  0
  9 12  1  0
 12 13  2  0
 13 14  1  0
 13  5  1  0
  1 15  1  0
  1 16  1  0
  1 17  1  0
  6 18  1  0
  8 19  1  0
  8 20  1  0
 11 21  1  0
 11 22  1  0
 11 23  1  0
 12 24  1  0
M  END
>  <SMILES>  (3) 
COC(=O)c1cc(N)c(OC)cc1Cl

$$$$
beam2_mol2
     RDKit          3D

 27 27  0  0  0  0  0  0  0  0999 V2000
    3.9955    0.7722   -0.7574 C   0  0  0  0  0  0  0  0  0  0  0  0
    3.5696   -0.6080   -0.2931 C   0  0  0  0  0  0  0  0  0  0  0  0
    2.1527   -0.7683   -0.4523 O   0  0  0  0  0  0  0  0  0  0  0  0
    1.3955   -0.3220    0.5826 C   0  0  0  0  0  0  0  0  0  0  0  0
    1.7948    0.1701    1.6230 O   0  0  0  0  0  0  0  0  0  0  0  0
   -0.0265   -0.5421    0.2429 C   0  0  0  0  0  0  0  0  0  0  0  0
   -0.4283   -1.8183   -0.1713 C   0  0  0  0  0  0  0  0  0  0  0  0
   -1.7695   -2.0556   -0.4622 C   0  0  0  0  0  0  0  0  0  0  0  0
   -2.2306   -3.6398   -0.9809 Cl  0  0  0  0  0  0  0  0  0  0  0  0
   -2.7326   -1.0427   -0.3092 C   0  0  0  0  0  0  0  0  0  0  0  0
   -4.0675   -1.2234   -0.7171 N   0  0  0  0  0  0  0  0  0  0  0  0
   -2.3023    0.2425    0.0557 C   0  0  0  0  0  0  0  0  0  0  0  0
   -0.9576    0.5017    0.3563 C   0  0  0  0  0  0  0  0  0  0  0  0
   -0.4705    1.7330    0.7031 O   0  0  0  0  0  0  0  0  0  0  0  0
   -1.4100    2.7380    1.0614 C   0  0  0  0  0  0  0  0  0  0  0  0
    3.6805    0.9438   -1.7920 H   0  0  0  0  0  0  0  0  0  0  0  0
    3.5285    1.5530   -0.1488 H   0  0  0  0  0  0  0  0  0  0  0  0
    5.0816    0.8841   -0.6957 H   0  0  0  0  0  0  0  0  0  0  0  0
    4.0496   -1.3702   -0.9156 H   0  0  0  0  0  0  0  0  0  0  0  0
    3.8783   -0.7964    0.7416 H   0  0  0  0  0  0  0  0  0  0  0  0
    0.3015   -2.6183   -0.2652 H   0  0  0  0  0  0  0  0  0  0  0  0
   -4.3458   -2.2035   -0.7331 H   0  0  0  0  0  0  0  0  0  0  0  0
   -4.7414   -0.6323   -0.2415 H   0  0  0  0  0  0  0  0  0  0  0  0
   -3.0400    1.0381    0.0818 H   0  0  0  0  0  0  0  0  0  0  0  0
   -2.0785    2.3947    1.8580 H   0  0  0  0  0  0  0  0  0  0  0  0
   -1.9762    3.0718    0.1860 H   0  0  0  0  0  0  0  0  0  0  0  0
   -0.8507    3.5977    1.4429 H   0  0  0  0  0  0  0  0  0  0  0  0
  1  2  1  0
  2  3  1  0
  3  4  1  0
  4  5  2  0
  4  6  1  0
  6  7  2  0
  7  8  1  0
  8  9  1  0
  8 10  2  0
 10 11  1  0
 10 12  1  0
 12 13  2  0
 13 14  1  0
 14 15  1  0
 13  6  1  0
  1 16  1  0
  1 17  1  0
  1 18  1  0
  2 19  1  0
  2 20  1  0
  7 21  1  0
 11 22  1  0
 11 23  1  0
 12 24  1  0
 15 25  1  0
 15 26  1  0
 15 27  1  0
M  END
>  <SMILES>  (4) 
CCOC(=O)c1cc(Cl)c(N)cc1OC

$$$$
beam3_mol2
     RDKit          3D

 24 24  0  0  0  0  0  0  0  0999 V2000
    2.9166   -1.8353   -0.7526 C   0  0  0  0  0  0  0  0  0  0  0  0
    1.7759   -0.9803   -0.7022 O   0  0  0  0  0  0  0  0  0  0  0  0
    1.3141   -0.7538    0.5528 C   0  0  0  0  0  0  0  0  0  0  0  0
    1.8081   -1.1638    1.5937 O   0  0  0  0  0  0  0  0  0  0  0  0
    0.1640    0.1777    0.5123 C   0  0  0  0  0  0  0  0  0  0  0  0
    0.1789    1.2958    1.3775 C   0  0  0  0  0  0  0  0  0  0  0  0
    1.2971    1.6253    2.1714 N   0  0  0  0  0  0  0  0  0  0  0  0
   -0.8593    2.2278    1.2759 C   0  0  0  0  0  0  0  0  0  0  0  0
   -1.9350    1.9957    0.4213 C   0  0  0  0  0  0  0  0  0  0  0  0
   -3.2205    3.1394    0.3438 Cl  0  0  0  0  0  0  0  0  0  0  0  0
   -1.9873    0.8485   -0.3697 C   0  0  0  0  0  0  0  0  0  0  0  0
   -0.9362   -0.0725   -0.3355 C   0  0  0  0  0  0  0  0  0  0  0  0
   -0.9229   -1.2420   -1.0509 O   0  0  0  0  0  0  0  0  0  0  0  0
   -1.9270   -1.4280   -2.0408 C   0  0  0  0  0  0  0  0  0  0  0  0
    3.1888   -1.9763   -1.8023 H   0  0  0  0  0  0  0  0  0  0  0  0
    3.7631   -1.3746   -0.2339 H   0  0  0  0  0  0  0  0  0  0  0  0
    2.6836   -2.8140   -0.3213 H   0  0  0  0  0  0  0  0  0  0  0  0
    1.8399    0.7989    2.4429 H   0  0  0  0  0  0  0  0  0  0  0  0
    1.0818    2.2042    2.9776 H   0  0  0  0  0  0  0  0  0  0  0  0
   -0.8316    3.1388    1.8684 H   0  0  0  0  0  0  0  0  0  0  0  0
   -2.8565    0.6984   -1.0012 H   0  0  0  0  0  0  0  0  0  0  0  0
   -2.9141   -1.5384   -1.5806 H   0  0  0  0  0  0  0  0  0  0  0  0
   -1.9190   -0.6141   -2.7734 H   0  0  0  0  0  0  0  0  0  0  0  0
   -1.7026   -2.3573   -2.5732 H   0  0  0  0  0  0  0  0  0  0  0  0
  1  2  1  0
  2  3  1  0
  3  4  2  0
  3  5  1  0
  5  6  2  0
  6  7  1  0
  6  8  1  0
  8  9  2  0
  9 10  1  0
  9 11  1  0
 11 12  2  0
 12 13  1  0
 13 14  1  0
 12  5  1  0
  1 15  1  0
  1 16  1  0
  1 17  1  0
  7 18  1  0
  7 19  1  0
  8 20  1  0
 11 21  1  0
 14 22  1  0
 14 23  1  0
 14 24  1  0
M  END
>  <SMILES>  (5) 
COC(=O)c1c(N)cc(Cl)cc1OC

$$$$
beam4_mol2
     RDKit          3D

 24 24  0  0  0  0  0  0  0  0999 V2000
    4.0147   -0.2076   -0.4232 C   0  0  0  0  0  0  0  0  0  0  0  0
    2.6489   -0.6212   -0.3665 O   0  0  0  0  0  0  0  0  0  0  0  0
    1.7696    0.4084   -0.2604 C   0  0  0  0  0  0  0  0  0  0  0  0
    2.0473    1.5949   -0.2326 O   0  0  0  0  0  0  0  0  0  0  0  0
    0.3975   -0.1431   -0.1878 C   0  0  0  0  0  0  0  0  0  0  0  0
    0.0286   -1.1980   -1.0318 C   0  0  0  0  0  0  0  0  0  0  0  0
   -1.2715   -1.7060   -0.9805 C   0  0  0  0  0  0  0  0  0  0  0  0
   -1.6889   -2.9977   -2.0533 Cl  0  0  0  0  0  0  0  0  0  0  0  0
   -2.2138   -1.2063   -0.0621 C   0  0  0  0  0  0  0  0  0  0  0  0
   -3.5568   -1.6230   -0.0740 N   0  0  0  0  0  0  0  0  0  0  0  0
   -1.8467   -0.1195    0.7390 C   0  0  0  0  0  0  0  0  0  0  0  0
   -0.5520    0.4105    0.6771 C   0  0  0  0  0  0  0  0  0  0  0  0
   -0.2145    1.4119    1.5487 O   0  0  0  0  0  0  0  0  0  0  0  0
   -0.6968    2.6726    1.0786 C   0  0  0  0  0  0  0  0  0  0  0  0
    4.6372   -1.1037   -0.4945 H   0  0  0  0  0  0  0  0  0  0  0  0
    4.1915    0.4087   -1.3103 H   0  0  0  0  0  0  0  0  0  0  0  0
    4.2901    0.3340    0.4872 H   0  0  0  0  0  0  0  0  0  0  0  0
    0.7456   -1.6146   -1.7347 H   0  0  0  0  0  0  0  0  0  0  0  0
   -3.6802   -2.5493   -0.4796 H   0  0  0  0  0  0  0  0  0  0  0  0
   -4.0407   -1.5146    0.8118 H   0  0  0  0  0  0  0  0  0  0  0  0
   -2.5669    0.3173    1.4259 H   0  0  0  0  0  0  0  0  0  0  0  0
   -1.7817    2.7432    1.2096 H   0  0  0  0  0  0  0  0  0  0  0  0
   -0.4301    2.8471    0.0301 H   0  0  0  0  0  0  0  0  0  0  0  0
   -0.2303    3.4560    1.6832 H   0  0  0  0  0  0  0  0  0  0  0  0
  1  2  1  0
  2  3  1  0
  3  4  2  0
  3  5  1  0
  5  6  2  0
  6  7  1  0
  7  8  1  0
  7  9  2  0
  9 10  1  0
  9 11  1  0
 11 12  2  0
 12 13  1  0
 13 14  1  0
 12  5  1  0
  1 15  1  0
  1 16  1  0
  1 17  1  0
  6 18  1  0
 10 19  1  0
 10 20  1  0
 11 21  1  0
 14 22  1  0
 14 23  1  0
 14 24  1  0
M  END
>  <SMILES>  (6) 
COC(=O)c1cc(Cl)c(N)cc1OC

$$$$
beam5_mol1
     RDKit          3D

 32 32  0  0  0  0  0  0  0  0999 V2000
   -3.0764    2.8807    1.4610 C   0  0  0  0  0  0  0  0  0  0  0  0
   -2.0894    1.9173    1.0920 O   0  0  0  0  0  0  0  0  0  0  0  0
   -2.6075    0.7487    0.6239 C   0  0  0  0  0  0  0  0  0  0  0  0
   -3.7992    0.5069    0.5048 O   0  0  0  0  0  0  0  0  0  0  0  0
   -1.5180   -0.1830    0.2708 C   0  0  0  0  0  0  0  0  0  0  0  0
   -0.2195    0.1419    0.1156 C   0  0  0  0  0  0  0  0  0  0  0  0
    0.5036   -1.0755   -0.2462 C   0  0  0  0  0  0  0  0  0  0  0  0
    1.8269   -1.1982   -0.4925 C   0  0  0  0  0  0  0  0  0  0  0  0
    2.4593   -2.3907   -0.8045 N   0  0  0  0  0  0  0  0  0  0  0  0
    2.7238   -0.0503   -0.4193 C   0  0  0  0  0  0  0  0  0  0  0  0
    2.8469    0.9479   -1.3179 C   0  0  0  0  0  0  0  0  0  0  0  0
    1.8829    0.9358   -2.7745 Cl  0  0  0  0  0  0  0  0  0  0  0  0
    3.7077    2.0203   -1.2199 O   0  0  0  0  0  0  0  0  0  0  0  0
    4.5250    2.1237   -0.0622 C   0  0  0  0  0  0  0  0  0  0  0  0
   -0.4710   -2.1588   -0.2605 C   0  0  0  0  0  0  0  0  0  0  0  0
   -1.6627   -1.6066    0.0169 C   0  0  0  0  0  0  0  0  0  0  0  0
   -2.8368   -2.2662    0.2239 O   0  0  0  0  0  0  0  0  0  0  0  0
   -3.5644   -2.3989   -0.9952 C   0  0  0  0  0  0  0  0  0  0  0  0
   -2.5592    3.7726    1.8253 H   0  0  0  0  0  0  0  0  0  0  0  0
   -3.7083    2.4940    2.2667 H   0  0  0  0  0  0  0  0  0  0  0  0
   -3.6813    3.1619    0.5932 H   0  0  0  0  0  0  0  0  0  0  0  0
    0.2148    1.1222    0.2311 H   0  0  0  0  0  0  0  0  0  0  0  0
    1.8256   -3.0865   -1.1875 H   0  0  0  0  0  0  0  0  0  0  0  0
    3.2607   -2.2567   -1.4181 H   0  0  0  0  0  0  0  0  0  0  0  0
    3.3516   -0.0797    0.4661 H   0  0  0  0  0  0  0  0  0  0  0  0
    5.1203    3.0373   -0.1512 H   0  0  0  0  0  0  0  0  0  0  0  0
    5.2169    1.2780    0.0060 H   0  0  0  0  0  0  0  0  0  0  0  0
    3.9153    2.2072    0.8434 H   0  0  0  0  0  0  0  0  0  0  0  0
   -0.2739   -3.2063   -0.4076 H   0  0  0  0  0  0  0  0  0  0  0  0
   -4.5216   -2.8767   -0.7669 H   0  0  0  0  0  0  0  0  0  0  0  0
   -3.0234   -3.0384   -1.7013 H   0  0  0  0  0  0  0  0  0  0  0  0
   -3.7685   -1.4239   -1.4506 H   0  0  0  0  0  0  0  0  0  0  0  0
  1  2  1  0
  2  3  1  0
  3  4  2  0
  3  5  1  0
  5  6  2  0
  6  7  1  0
  7  8  2  3
  8  9  1  0
  8 10  1  0
 10 11  2  3
 11 12  1  0
 11 13  1  0
 13 14  1  0
  7 15  1  0
 15 16  2  0
 16 17  1  0
 17 18  1  0
 16  5  1  0
  1 19  1  0
  1 20  1  0
  1 21  1  0
  6 22  1  0
  9 23  1  0
  9 24  1  0
 10 25  1  0
 14 26  1  0
 14 27  1  0
 14 28  1  0
 15 29  1  0
 18 30  1  0
 18 31  1  0
 18 32  1  0
M  END
>  <SMILES>  (7) 
COC(=O)C1=CC(=C(N)C=C(Cl)OC)C=C1OC

$$$$
