beam1_mol2
     RDKit          3D

 24 24  0  0  0  0  0  0  0  0999 V2000
   -4.4396    0.3063   -0.8162 C   0  0  0  0  0  0  0  0  0  0  0  0
   -3.0372    0.0388   -0.7742 O   0  0  0  0  0  0  0  0  0  0  0  0
   -2.3596    0.8217    0.1035 C   0  0  0  0  0  0  0  0  0  0  0  0
   -2.8311    1.6786    0.8290 O   0  0  0  0  0  0  0  0  0  0  0  0
   -0.9293    0.4655    0.0394 C   0  0  0  0  0  0  0  0  0  0  0  0
   -0.5677   -0.8833    0.1695 C   0  0  0  0  0  0  0  0  0  0  0  0
    0.7756   -1.2636    0.1248 C   0  0  0  0  0  0  0  0  0  0  0  0
    1.1234   -2.6020    0.3837 N   0  0  0  0  0  0  0  0  0  0  0  0
    1.7739   -0.2716    0.0348 C   0  0  0  0  0  0  0  0  0  0  0  0
    3.0663   -0.7400    0.0498 O   0  0  0  0  0  0  0  0  0  0  0  0
    4.1018    0.2269    0.1756 C   0  0  0  0  0  0  0  0  0  0  0  0
    1.4110    1.0711   -0.1025 C   0  0  0  0  0  0  0  0  0  0  0  0
    0.0603    1.4408   -0.1044 C   0  0  0  0  0  0  0  0  0  0  0  0
   -0.3020    3.1153   -0.3308 Cl  0  0  0  0  0  0  0  0  0  0  0  0
   -4.8902   -0.3640   -1.5533 H   0  0  0  0  0  0  0  0  0  0  0  0
   -4.8967    0.1075    0.1583 H   0  0  0  0  0  0  0  0  0  0  0  0
   -4.6242    1.3390   -1.1284 H   0  0  0  0  0  0  0  0  0  0  0  0
   -1.3364   -1.6375    0.3205 H   0  0  0  0  0  0  0  0  0  0  0  0
    0.4682   -3.2863    0.0222 H   0  0  0  0  0  0  0  0  0  0  0  0
    2.0881   -2.7891    0.1109 H   0  0  0  0  0  0  0  0  0  0  0  0
    3.9618    0.8481    1.0666 H   0  0  0  0  0  0  0  0  0  0  0  0
    5.0482   -0.3104    0.2897 H   0  0  0  0  0  0  0  0  0  0  0  0
    4.1749    0.8405   -0.7280 H   0  0  0  0  0  0  0  0  0  0  0  0
    2.1604    1.8478   -0.2149 H   0  0  0  0  0  0  0  0  0  0  0  0
  1  2  1  0
  2  3  1  0
  3  4  2  0
  3  5  1  0
  5  6  2  0
  6  7  1  0
  7  8  1  0
  7  9  2  0
  9 10  1  0
 10 11  1  0
  9 12  1  0
 12 13  2  0
 13 14  1  0
 13  5  1  0
  1 15  1  0
  1 16  1  0
  1 17  1  0
  6 18  1  0
  8 19  1  0
  8 20  1  0
 11 21  1  0
 11 22  1  0
 11 23  1  0
 12 24  1  0
M  END
>  <SMILES>  (1) 
COC(=O)c1cc(N)c(OC)cc1Cl

$$$$
