beam1_mol1
     RDKit          3D

 24 23  0  0  0  0  0  0  0  0999 V2000
   -2.1237   -1.5833    0.7594 C   0  0  0  0  0  0  0  0  0  0  0  0
   -1.0521   -1.2244   -0.2664 C   0  0  0  0  0  0  0  0  0  0  0  0
   -0.3600    0.0359    0.0718 N   0  0  0  0  0  0  0  0  0  0  0  0
   -1.1977    1.1988   -0.2836 C   0  0  0  0  0  0  0  0  0  0  0  0
   -0.7816    2.4572    0.4732 C   0  0  0  0  0  0  0  0  0  0  0  0
    0.9468    0.1064   -0.6242 C   0  0  0  0  0  0  0  0  0  0  0  0
    2.0323   -0.7550    0.0585 C   0  0  0  0  0  0  0  0  0  0  0  0
    3.3380   -0.5908   -0.5885 N   0  0  0  0  0  0  0  0  0  0  0  0
   -2.9550   -0.8731    0.7607 H   0  0  0  0  0  0  0  0  0  0  0  0
   -2.5382   -2.5713    0.5327 H   0  0  0  0  0  0  0  0  0  0  0  0
   -1.7021   -1.6225    1.7695 H   0  0  0  0  0  0  0  0  0  0  0  0
   -1.4888   -1.1793   -1.2722 H   0  0  0  0  0  0  0  0  0  0  0  0
   -0.3469   -2.0623   -0.2733 H   0  0  0  0  0  0  0  0  0  0  0  0
   -2.2442    1.0172   -0.0162 H   0  0  0  0  0  0  0  0  0  0  0  0
   -1.1827    1.3829   -1.3653 H   0  0  0  0  0  0  0  0  0  0  0  0
   -1.4880    3.2672    0.2629 H   0  0  0  0  0  0  0  0  0  0  0  0
    0.2130    2.8085    0.1851 H   0  0  0  0  0  0  0  0  0  0  0  0
   -0.7858    2.2837    1.5547 H   0  0  0  0  0  0  0  0  0  0  0  0
    1.3192    1.1374   -0.6206 H   0  0  0  0  0  0  0  0  0  0  0  0
    0.8405   -0.1772   -1.6800 H   0  0  0  0  0  0  0  0  0  0  0  0
    2.1224   -0.4710    1.1133 H   0  0  0  0  0  0  0  0  0  0  0  0
    1.7702   -1.8163    0.0237 H   0  0  0  0  0  0  0  0  0  0  0  0
    3.6380    0.3790   -0.4924 H   0  0  0  0  0  0  0  0  0  0  0  0
    4.0263   -1.1477   -0.0828 H   0  0  0  0  0  0  0  0  0  0  0  0
  1  2  1  0
  2  3  1  0
  3  4  1  0
  4  5  1  0
  3  6  1  0
  6  7  1  0
  7  8  1  0
  1  9  1  0
  1 10  1  0
  1 11  1  0
  2 12  1  0
  2 13  1  0
  4 14  1  0
  4 15  1  0
  5 16  1  0
  5 17  1  0
  5 18  1  0
  6 19  1  0
  6 20  1  0
  7 21  1  0
  7 22  1  0
  8 23  1  0
  8 24  1  0
M  END
>  <SMILES>  (1) 
CCN(CC)CCN

$$$$
