beam2_mol2
     RDKit          3D

 27 27  0  0  0  0  0  0  0  0999 V2000
    3.9955    0.7722   -0.7574 C   0  0  0  0  0  0  0  0  0  0  0  0
    3.5696   -0.6080   -0.2931 C   0  0  0  0  0  0  0  0  0  0  0  0
    2.1527   -0.7683   -0.4523 O   0  0  0  0  0  0  0  0  0  0  0  0
    1.3955   -0.3220    0.5826 C   0  0  0  0  0  0  0  0  0  0  0  0
    1.7948    0.1701    1.6230 O   0  0  0  0  0  0  0  0  0  0  0  0
   -0.0265   -0.5421    0.2429 C   0  0  0  0  0  0  0  0  0  0  0  0
   -0.4283   -1.8183   -0.1713 C   0  0  0  0  0  0  0  0  0  0  0  0
   -1.7695   -2.0556   -0.4622 C   0  0  0  0  0  0  0  0  0  0  0  0
   -2.2306   -3.6398   -0.9809 Cl  0  0  0  0  0  0  0  0  0  0  0  0
   -2.7326   -1.0427   -0.3092 C   0  0  0  0  0  0  0  0  0  0  0  0
   -4.0675   -1.2234   -0.7171 N   0  0  0  0  0  0  0  0  0  0  0  0
   -2.3023    0.2425    0.0557 C   0  0  0  0  0  0  0  0  0  0  0  0
   -0.9576    0.5017    0.3563 C   0  0  0  0  0  0  0  0  0  0  0  0
   -0.4705    1.7330    0.7031 O   0  0  0  0  0  0  0  0  0  0  0  0
   -1.4100    2.7380    1.0614 C   0  0  0  0  0  0  0  0  0  0  0  0
    3.6805    0.9438   -1.7920 H   0  0  0  0  0  0  0  0  0  0  0  0
    3.5285    1.5530   -0.1488 H   0  0  0  0  0  0  0  0  0  0  0  0
    5.0816    0.8841   -0.6957 H   0  0  0  0  0  0  0  0  0  0  0  0
    4.0496   -1.3702   -0.9156 H   0  0  0  0  0  0  0  0  0  0  0  0
    3.8783   -0.7964    0.7416 H   0  0  0  0  0  0  0  0  0  0  0  0
    0.3015   -2.6183   -0.2652 H   0  0  0  0  0  0  0  0  0  0  0  0
   -4.3458   -2.2035   -0.7331 H   0  0  0  0  0  0  0  0  0  0  0  0
   -4.7414   -0.6323   -0.2415 H   0  0  0  0  0  0  0  0  0  0  0  0
   -3.0400    1.0381    0.0818 H   0  0  0  0  0  0  0  0  0  0  0  0
   -2.0785    2.3947    1.8580 H   0  0  0  0  0  0  0  0  0  0  0  0
   -1.9762    3.0718    0.1860 H   0  0  0  0  0  0  0  0  0  0  0  0
   -0.8507    3.5977    1.4429 H   0  0  0  0  0  0  0  0  0  0  0  0
  1  2  1  0
  2  3  1  0
  3  4  1  0
  4  5  2  0
  4  6  1  0
  6  7  2  0
  7  8  1  0
  8  9  1  0
  8 10  2  0
 10 11  1  0
 10 12  1  0
 12 13  2  0
 13 14  1  0
 14 15  1  0
 13  6  1  0
  1 16  1  0
  1 17  1  0
  1 18  1  0
  2 19  1  0
  2 20  1  0
  7 21  1  0
 11 22  1  0
 11 23  1  0
 12 24  1  0
 15 25  1  0
 15 26  1  0
 15 27  1  0
M  END
>  <SMILES>  (1) 
CCOC(=O)c1cc(Cl)c(N)cc1OC

$$$$
