beam5_mol1
     RDKit          3D

 32 32  0  0  0  0  0  0  0  0999 V2000
   -3.0764    2.8807    1.4610 C   0  0  0  0  0  0  0  0  0  0  0  0
   -2.0894    1.9173    1.0920 O   0  0  0  0  0  0  0  0  0  0  0  0
   -2.6075    0.7487    0.6239 C   0  0  0  0  0  0  0  0  0  0  0  0
   -3.7992    0.5069    0.5048 O   0  0  0  0  0  0  0  0  0  0  0  0
   -1.5180   -0.1830    0.2708 C   0  0  0  0  0  0  0  0  0  0  0  0
   -0.2195    0.1419    0.1156 C   0  0  0  0  0  0  0  0  0  0  0  0
    0.5036   -1.0755   -0.2462 C   0  0  0  0  0  0  0  0  0  0  0  0
    1.8269   -1.1982   -0.4925 C   0  0  0  0  0  0  0  0  0  0  0  0
    2.4593   -2.3907   -0.8045 N   0  0  0  0  0  0  0  0  0  0  0  0
    2.7238   -0.0503   -0.4193 C   0  0  0  0  0  0  0  0  0  0  0  0
    2.8469    0.9479   -1.3179 C   0  0  0  0  0  0  0  0  0  0  0  0
    1.8829    0.9358   -2.7745 Cl  0  0  0  0  0  0  0  0  0  0  0  0
    3.7077    2.0203   -1.2199 O   0  0  0  0  0  0  0  0  0  0  0  0
    4.5250    2.1237   -0.0622 C   0  0  0  0  0  0  0  0  0  0  0  0
   -0.4710   -2.1588   -0.2605 C   0  0  0  0  0  0  0  0  0  0  0  0
   -1.6627   -1.6066    0.0169 C   0  0  0  0  0  0  0  0  0  0  0  0
   -2.8368   -2.2662    0.2239 O   0  0  0  0  0  0  0  0  0  0  0  0
   -3.5644   -2.3989   -0.9952 C   0  0  0  0  0  0  0  0  0  0  0  0
   -2.5592    3.7726    1.8253 H   0  0  0  0  0  0  0  0  0  0  0  0
   -3.7083    2.4940    2.2667 H   0  0  0  0  0  0  0  0  0  0  0  0
   -3.6813    3.1619    0.5932 H   0  0  0  0  0  0  0  0  0  0  0  0
    0.2148    1.1222    0.2311 H   0  0  0  0  0  0  0  0  0  0  0  0
    1.8256   -3.0865   -1.1875 H   0  0  0  0  0  0  0  0  0  0  0  0
    3.2607   -2.2567   -1.4181 H   0  0  0  0  0  0  0  0  0  0  0  0
    3.3516   -0.0797    0.4661 H   0  0  0  0  0  0  0  0  0  0  0  0
    5.1203    3.0373   -0.1512 H   0  0  0  0  0  0  0  0  0  0  0  0
    5.2169    1.2780    0.0060 H   0  0  0  0  0  0  0  0  0  0  0  0
    3.9153    2.2072    0.8434 H   0  0  0  0  0  0  0  0  0  0  0  0
   -0.2739   -3.2063   -0.4076 H   0  0  0  0  0  0  0  0  0  0  0  0
   -4.5216   -2.8767   -0.7669 H   0  0  0  0  0  0  0  0  0  0  0  0
   -3.0234   -3.0384   -1.7013 H   0  0  0  0  0  0  0  0  0  0  0  0
   -3.7685   -1.4239   -1.4506 H   0  0  0  0  0  0  0  0  0  0  0  0
  1  2  1  0
  2  3  1  0
  3  4  2  0
  3  5  1  0
  5  6  2  0
  6  7  1  0
  7  8  2  3
  8  9  1  0
  8 10  1  0
 10 11  2  3
 11 12  1  0
 11 13  1  0
 13 14  1  0
  7 15  1  0
 15 16  2  0
 16 17  1  0
 17 18  1  0
 16  5  1  0
  1 19  1  0
  1 20  1  0
  1 21  1  0
  6 22  1  0
  9 23  1  0
  9 24  1  0
 10 25  1  0
 14 26  1  0
 14 27  1  0
 14 28  1  0
 15 29  1  0
 18 30  1  0
 18 31  1  0
 18 32  1  0
M  END
>  <SMILES>  (1) 
COC(=O)C1=CC(=C(N)C=C(Cl)OC)C=C1OC

$$$$
