beam4_mol2
     RDKit          3D

 24 24  0  0  0  0  0  0  0  0999 V2000
    4.0147   -0.2076   -0.4232 C   0  0  0  0  0  0  0  0  0  0  0  0
    2.6489   -0.6212   -0.3665 O   0  0  0  0  0  0  0  0  0  0  0  0
    1.7696    0.4084   -0.2604 C   0  0  0  0  0  0  0  0  0  0  0  0
    2.0473    1.5949   -0.2326 O   0  0  0  0  0  0  0  0  0  0  0  0
    0.3975   -0.1431   -0.1878 C   0  0  0  0  0  0  0  0  0  0  0  0
    0.0286   -1.1980   -1.0318 C   0  0  0  0  0  0  0  0  0  0  0  0
   -1.2715   -1.7060   -0.9805 C   0  0  0  0  0  0  0  0  0  0  0  0
   -1.6889   -2.9977   -2.0533 Cl  0  0  0  0  0  0  0  0  0  0  0  0
   -2.2138   -1.2063   -0.0621 C   0  0  0  0  0  0  0  0  0  0  0  0
   -3.5568   -1.6230   -0.0740 N   0  0  0  0  0  0  0  0  0  0  0  0
   -1.8467   -0.1195    0.7390 C   0  0  0  0  0  0  0  0  0  0  0  0
   -0.5520    0.4105    0.6771 C   0  0  0  0  0  0  0  0  0  0  0  0
   -0.2145    1.4119    1.5487 O   0  0  0  0  0  0  0  0  0  0  0  0
   -0.6968    2.6726    1.0786 C   0  0  0  0  0  0  0  0  0  0  0  0
    4.6372   -1.1037   -0.4945 H   0  0  0  0  0  0  0  0  0  0  0  0
    4.1915    0.4087   -1.3103 H   0  0  0  0  0  0  0  0  0  0  0  0
    4.2901    0.3340    0.4872 H   0  0  0  0  0  0  0  0  0  0  0  0
    0.7456   -1.6146   -1.7347 H   0  0  0  0  0  0  0  0  0  0  0  0
   -3.6802   -2.5493   -0.4796 H   0  0  0  0  0  0  0  0  0  0  0  0
   -4.0407   -1.5146    0.8118 H   0  0  0  0  0  0  0  0  0  0  0  0
   -2.5669    0.3173    1.4259 H   0  0  0  0  0  0  0  0  0  0  0  0
   -1.7817    2.7432    1.2096 H   0  0  0  0  0  0  0  0  0  0  0  0
   -0.4301    2.8471    0.0301 H   0  0  0  0  0  0  0  0  0  0  0  0
   -0.2303    3.4560    1.6832 H   0  0  0  0  0  0  0  0  0  0  0  0
  1  2  1  0
  2  3  1  0
  3  4  2  0
  3  5  1  0
  5  6  2  0
  6  7  1  0
  7  8  1  0
  7  9  2  0
  9 10  1  0
  9 11  1  0
 11 12  2  0
 12 13  1  0
 13 14  1  0
 12  5  1  0
  1 15  1  0
  1 16  1  0
  1 17  1  0
  6 18  1  0
 10 19  1  0
 10 20  1  0
 11 21  1  0
 14 22  1  0
 14 23  1  0
 14 24  1  0
M  END
>  <SMILES>  (1) 
COC(=O)c1cc(Cl)c(N)cc1OC

$$$$
