beam3_mol2
     RDKit          3D

 24 24  0  0  0  0  0  0  0  0999 V2000
    2.9166   -1.8353   -0.7526 C   0  0  0  0  0  0  0  0  0  0  0  0
    1.7759   -0.9803   -0.7022 O   0  0  0  0  0  0  0  0  0  0  0  0
    1.3141   -0.7538    0.5528 C   0  0  0  0  0  0  0  0  0  0  0  0
    1.8081   -1.1638    1.5937 O   0  0  0  0  0  0  0  0  0  0  0  0
    0.1640    0.1777    0.5123 C   0  0  0  0  0  0  0  0  0  0  0  0
    0.1789    1.2958    1.3775 C   0  0  0  0  0  0  0  0  0  0  0  0
    1.2971    1.6253    2.1714 N   0  0  0  0  0  0  0  0  0  0  0  0
   -0.8593    2.2278    1.2759 C   0  0  0  0  0  0  0  0  0  0  0  0
   -1.9350    1.9957    0.4213 C   0  0  0  0  0  0  0  0  0  0  0  0
   -3.2205    3.1394    0.3438 Cl  0  0  0  0  0  0  0  0  0  0  0  0
   -1.9873    0.8485   -0.3697 C   0  0  0  0  0  0  0  0  0  0  0  0
   -0.9362   -0.0725   -0.3355 C   0  0  0  0  0  0  0  0  0  0  0  0
   -0.9229   -1.2420   -1.0509 O   0  0  0  0  0  0  0  0  0  0  0  0
   -1.9270   -1.4280   -2.0408 C   0  0  0  0  0  0  0  0  0  0  0  0
    3.1888   -1.9763   -1.8023 H   0  0  0  0  0  0  0  0  0  0  0  0
    3.7631   -1.3746   -0.2339 H   0  0  0  0  0  0  0  0  0  0  0  0
    2.6836   -2.8140   -0.3213 H   0  0  0  0  0  0  0  0  0  0  0  0
    1.8399    0.7989    2.4429 H   0  0  0  0  0  0  0  0  0  0  0  0
    1.0818    2.2042    2.9776 H   0  0  0  0  0  0  0  0  0  0  0  0
   -0.8316    3.1388    1.8684 H   0  0  0  0  0  0  0  0  0  0  0  0
   -2.8565    0.6984   -1.0012 H   0  0  0  0  0  0  0  0  0  0  0  0
   -2.9141   -1.5384   -1.5806 H   0  0  0  0  0  0  0  0  0  0  0  0
   -1.9190   -0.6141   -2.7734 H   0  0  0  0  0  0  0  0  0  0  0  0
   -1.7026   -2.3573   -2.5732 H   0  0  0  0  0  0  0  0  0  0  0  0
  1  2  1  0
  2  3  1  0
  3  4  2  0
  3  5  1  0
  5  6  2  0
  6  7  1  0
  6  8  1  0
  8  9  2  0
  9 10  1  0
  9 11  1  0
 11 12  2  0
 12 13  1  0
 13 14  1  0
 12  5  1  0
  1 15  1  0
  1 16  1  0
  1 17  1  0
  7 18  1  0
  7 19  1  0
  8 20  1  0
 11 21  1  0
 14 22  1  0
 14 23  1  0
 14 24  1  0
M  END
>  <SMILES>  (1) 
COC(=O)c1c(N)cc(Cl)cc1OC

$$$$
