target_metoclopramide
     RDKit          3D

 42 42  0  0  0  0  0  0  0  0999 V2000
    4.4174    0.0408    2.1327 C   0  0  0  0  0  0  0  0  0  0  0  0
    4.1662    0.9673    0.9461 C   0  0  0  0  0  0  0  0  0  0  0  0
    3.3937    0.4043   -0.1745 N   0  0  0  0  0  0  0  0  0  0  0  0
    4.0170   -0.7719   -0.8040 C   0  0  0  0  0  0  0  0  0  0  0  0
    5.4293   -0.5193   -1.3252 C   0  0  0  0  0  0  0  0  0  0  0  0
    1.9953    0.1369    0.2203 C   0  0  0  0  0  0  0  0  0  0  0  0
    1.0281   -0.0566   -0.9623 C   0  0  0  0  0  0  0  0  0  0  0  0
   -0.3557   -0.0927   -0.5187 N   0  0  0  0  0  0  0  0  0  0  0  0
   -1.3285   -0.7685   -1.2190 C   0  0  0  0  0  0  0  0  0  0  0  0
   -1.0681   -1.5219   -2.1525 O   0  0  0  0  0  0  0  0  0  0  0  0
   -2.7547   -0.5725   -0.7924 C   0  0  0  0  0  0  0  0  0  0  0  0
   -3.6894   -1.4596   -1.3534 C   0  0  0  0  0  0  0  0  0  0  0  0
   -5.0395   -1.3730   -1.0195 C   0  0  0  0  0  0  0  0  0  0  0  0
   -6.1444   -2.4869   -1.7473 Cl  0  0  0  0  0  0  0  0  0  0  0  0
   -5.4895   -0.4266   -0.0877 C   0  0  0  0  0  0  0  0  0  0  0  0
   -6.8582   -0.2407    0.1801 N   0  0  0  0  0  0  0  0  0  0  0  0
   -4.5653    0.4942    0.4252 C   0  0  0  0  0  0  0  0  0  0  0  0
   -3.2007    0.4308    0.0935 C   0  0  0  0  0  0  0  0  0  0  0  0
   -2.2674    1.3087    0.5885 O   0  0  0  0  0  0  0  0  0  0  0  0
   -2.7350    2.4418    1.3140 C   0  0  0  0  0  0  0  0  0  0  0  0
    4.9815    0.5755    2.9043 H   0  0  0  0  0  0  0  0  0  0  0  0
    3.4822   -0.2993    2.5873 H   0  0  0  0  0  0  0  0  0  0  0  0
    5.0051   -0.8365    1.8471 H   0  0  0  0  0  0  0  0  0  0  0  0
    3.6539    1.8673    1.3107 H   0  0  0  0  0  0  0  0  0  0  0  0
    5.1287    1.3394    0.5761 H   0  0  0  0  0  0  0  0  0  0  0  0
    3.4244   -1.0725   -1.6748 H   0  0  0  0  0  0  0  0  0  0  0  0
    4.0281   -1.6300   -0.1214 H   0  0  0  0  0  0  0  0  0  0  0  0
    5.4583    0.3597   -1.9776 H   0  0  0  0  0  0  0  0  0  0  0  0
    5.7690   -1.3807   -1.9101 H   0  0  0  0  0  0  0  0  0  0  0  0
    6.1463   -0.3755   -0.5115 H   0  0  0  0  0  0  0  0  0  0  0  0
    1.9324   -0.7356    0.8834 H   0  0  0  0  0  0  0  0  0  0  0  0
    1.6222    0.9916    0.8009 H   0  0  0  0  0  0  0  0  0  0  0  0
    1.1117    0.7783   -1.6671 H   0  0  0  0  0  0  0  0  0  0  0  0
    1.2506   -0.9804   -1.5049 H   0  0  0  0  0  0  0  0  0  0  0  0
   -0.6744    0.6441    0.1024 H   0  0  0  0  0  0  0  0  0  0  0  0
   -3.3610   -2.2213   -2.0586 H   0  0  0  0  0  0  0  0  0  0  0  0
   -7.0667    0.1430    1.0958 H   0  0  0  0  0  0  0  0  0  0  0  0
   -7.4160   -1.0659   -0.0368 H   0  0  0  0  0  0  0  0  0  0  0  0
   -4.9437    1.2646    1.0894 H   0  0  0  0  0  0  0  0  0  0  0  0
   -3.1864    2.1387    2.2640 H   0  0  0  0  0  0  0  0  0  0  0  0
   -1.8683    3.0692    1.5438 H   0  0  0  0  0  0  0  0  0  0  0  0
   -3.4287    3.0398    0.7139 H   0  0  0  0  0  0  0  0  0  0  0  0
  1  2  1  0
  2  3  1  0
  3  4  1  0
  4  5  1  0
  3  6  1  0
  6  7  1  0
  7  8  1  0
  8  9  1  0
  9 10  2  0
  9 11  1  0
 11 12  2  0
 12 13  1  0
 13 14  1  0
 13 15  2  0
 15 16  1  0
 15 17  1  0
 17 18  2  0
 18 19  1  0
 19 20  1  0
 18 11  1  0
  1 21  1  0
  1 22  1  0
  1 23  1  0
  2 24  1  0
  2 25  1  0
  4 26  1  0
  4 27  1  0
  5 28  1  0
  5 29  1  0
  5 30  1  0
  6 31  1  0
  6 32  1  0
  7 33  1  0
  7 34  1  0
  8 35  1  0
 12 36  1  0
 16 37  1  0
 16 38  1  0
 17 39  1  0
 20 40  1  0
 20 41  1  0
 20 42  1  0
M  END
>  <SMILES>  (1) 
CCN(CC)CCNC(=O)c1cc(Cl)c(N)cc1OC

$$$$
