Biotin.mol
     RDKit          2D

 32 33  0  0  1  0  0  0  0  0999 V2000
    2.0006    2.3441    0.0000 O   0  0  0  0  0  0  0  0  0  0  0  0
    2.0006    1.5220    0.0000 C   0  0  0  0  0  0  0  0  0  0  0  0
    1.2886    1.1109    0.0000 C   0  0  0  0  0  0  0  0  0  0  0  0
    1.2886    0.2887    0.0000 C   0  0  0  0  0  0  0  0  0  0  0  0
    0.5766   -0.1223    0.0000 C   0  0  0  0  0  0  0  0  0  0  0  0
    0.5766   -0.9445    0.0000 C   0  0  0  0  0  0  0  0  0  0  0  0
   -0.1354   -1.3555    0.0000 C   0  0  0  0  0  0  0  0  0  0  0  0
   -0.8864   -1.0211    0.0000 C   0  0  0  0  0  0  0  0  0  0  0  0
   -1.2975   -0.3091    0.0000 N   0  0  0  0  0  0  0  0  0  0  0  0
   -2.1016   -0.4801    0.0000 C   0  0  0  0  0  0  0  0  0  0  0  0
   -2.7126    0.0700    0.0000 O   0  0  0  0  0  0  0  0  0  0  0  0
   -1.4365   -1.6321    0.0000 C   0  0  0  0  0  0  0  0  0  0  0  0
   -2.1876   -1.2977    0.0000 N   0  0  0  0  0  0  0  0  0  0  0  0
   -1.0255   -2.3441    0.0000 C   0  0  0  0  0  0  0  0  0  0  0  0
   -0.2213   -2.1732    0.0000 S   0  0  0  0  0  0  0  0  0  0  0  0
    2.7126    1.1109    0.0000 O   0  0  0  0  0  0  0  0  0  0  0  0
    0.0000    0.0000    0.0000 H   0  0  0  0  0  0  0  0  0  0  0  0
    0.0000    0.0000    0.0000 H   0  0  0  0  0  0  0  0  0  0  0  0
    0.0000    0.0000    0.0000 H   0  0  0  0  0  0  0  0  0  0  0  0
    0.0000    0.0000    0.0000 H   0  0  0  0  0  0  0  0  0  0  0  0
    0.0000    0.0000    0.0000 H   0  0  0  0  0  0  0  0  0  0  0  0
    0.0000    0.0000    0.0000 H   0  0  0  0  0  0  0  0  0  0  0  0
    0.0000    0.0000    0.0000 H   0  0  0  0  0  0  0  0  0  0  0  0
    0.0000    0.0000    0.0000 H   0  0  0  0  0  0  0  0  0  0  0  0
    0.0000    0.0000    0.0000 H   0  0  0  0  0  0  0  0  0  0  0  0
    0.0000    0.0000    0.0000 H   0  0  0  0  0  0  0  0  0  0  0  0
    0.0000    0.0000    0.0000 H   0  0  0  0  0  0  0  0  0  0  0  0
    0.0000    0.0000    0.0000 H   0  0  0  0  0  0  0  0  0  0  0  0
    0.0000    0.0000    0.0000 H   0  0  0  0  0  0  0  0  0  0  0  0
    0.0000    0.0000    0.0000 H   0  0  0  0  0  0  0  0  0  0  0  0
    0.0000    0.0000    0.0000 H   0  0  0  0  0  0  0  0  0  0  0  0
    0.0000    0.0000    0.0000 H   0  0  0  0  0  0  0  0  0  0  0  0
  1  2  1  0
  2  3  1  0
  3  4  1  0
  4  5  1  0
  5  6  1  0
  7  6  1  0
  7  8  1  0
  8  9  1  0
  9 10  1  0
 10 11  2  0
  8 12  1  0
 12 13  1  0
 10 13  1  0
 12 14  1  0
 14 15  1  0
  7 15  1  0
  2 16  2  0
  1 17  1  0
  3 18  1  0
  3 19  1  0
  4 20  1  0
  4 21  1  0
  5 22  1  0
  5 23  1  0
  6 24  1  0
  6 25  1  0
  7 26  1  1
  8 27  1  1
  9 28  1  0
 12 29  1  1
 13 30  1  0
 14 31  1  0
 14 32  1  0
M  END
